<?xml version="1.0" encoding="UTF-8"?>
<!-- generated on 2021-12-17 15:54:18.174058 by osmWebWizard.py v1_11_0+0000-d32ff7d52a3
  options: 
-->
<routes xmlns:xsi="http://www.w3.org/2001/XMLSchema-instance" xsi:noNamespaceSchemaLocation="http://sumo.dlr.de/xsd/routes_file.xsd">
    <vType id="ped_pedestrian" vClass="pedestrian" jmIgnoreJunctionFoeProb="1.0" jmIgnoreFoeProb="1.0"/>
    <person id="ped0" depart="0.00" type="ped_pedestrian">
        <walk from="4446567#6" to="33527080#1"/>
    </person>
    <person id="ped1" depart="0.31" type="ped_pedestrian">
        <walk from="177039205" to="-164209808#3"/>
    </person>
    <person id="ped2" depart="0.63" type="ped_pedestrian">
        <walk from="-157473372#4" to="-4481579#7"/>
    </person>
    <person id="ped3" depart="0.94" type="ped_pedestrian">
        <walk from="307285715" to="240718772#2"/>
    </person>
    <person id="ped4" depart="1.25" type="ped_pedestrian">
        <walk from="56455845#1" to="38566579"/>
    </person>
    <person id="ped5" depart="1.56" type="ped_pedestrian">
        <walk from="-241953980#2" to="-24417323#0"/>
    </person>
    <person id="ped6" depart="1.88" type="ped_pedestrian">
        <walk from="631270065" to="261620986#1"/>
    </person>
    <person id="ped7" depart="2.19" type="ped_pedestrian">
        <walk from="61792930#2" to="270168392#1"/>
    </person>
    <person id="ped8" depart="2.50" type="ped_pedestrian">
        <walk from="409055288" to="-187761993"/>
    </person>
    <person id="ped9" depart="2.82" type="ped_pedestrian">
        <walk from="-676641188#0" to="756628980"/>
    </person>
    <person id="ped10" depart="3.13" type="ped_pedestrian">
        <walk from="305607892#1" to="262589791#0"/>
    </person>
    <person id="ped11" depart="3.44" type="ped_pedestrian">
        <walk from="-414178632#0" to="4432408"/>
    </person>
    <person id="ped12" depart="3.75" type="ped_pedestrian">
        <walk from="944335656" to="302159482"/>
    </person>
    <person id="ped13" depart="4.07" type="ped_pedestrian">
        <walk from="-548502885#1" to="-169764047"/>
    </person>
    <person id="ped14" depart="4.38" type="ped_pedestrian">
        <walk from="105952577#4" to="-681844322#0"/>
    </person>
    <person id="ped15" depart="4.69" type="ped_pedestrian">
        <walk from="650702175#4" to="105748923#1"/>
    </person>
    <person id="ped16" depart="5.01" type="ped_pedestrian">
        <walk from="-671267842" to="-625011681"/>
    </person>
    <person id="ped17" depart="5.32" type="ped_pedestrian">
        <walk from="161277768#1" to="-4699559#0"/>
    </person>
    <person id="ped18" depart="5.63" type="ped_pedestrian">
        <walk from="-24030851#0" to="-189320479"/>
    </person>
    <person id="ped19" depart="5.94" type="ped_pedestrian">
        <walk from="52837364#0" to="177039217#1"/>
    </person>
    <person id="ped20" depart="6.26" type="ped_pedestrian">
        <walk from="-219052434#2" to="145344451"/>
    </person>
    <person id="ped21" depart="6.57" type="ped_pedestrian">
        <walk from="-25157967#0" to="182792812"/>
    </person>
    <person id="ped22" depart="6.88" type="ped_pedestrian">
        <walk from="262589789#6" to="-329163406#4"/>
    </person>
    <person id="ped23" depart="7.20" type="ped_pedestrian">
        <walk from="177556978#0" to="-460386217#2"/>
    </person>
    <person id="ped24" depart="7.51" type="ped_pedestrian">
        <walk from="238990437#0" to="4432417#6"/>
    </person>
    <person id="ped25" depart="7.82" type="ped_pedestrian">
        <walk from="183491818" to="227562710#0"/>
    </person>
    <person id="ped26" depart="8.13" type="ped_pedestrian">
        <walk from="116412541" to="253088927#3"/>
    </person>
    <person id="ped27" depart="8.45" type="ped_pedestrian">
        <walk from="-54731555#1" to="693326171#1"/>
    </person>
    <person id="ped28" depart="8.76" type="ped_pedestrian">
        <walk from="-4624417#0" to="-28351059#0"/>
    </person>
    <person id="ped29" depart="9.07" type="ped_pedestrian">
        <walk from="754206566" to="24858908#1"/>
    </person>
    <person id="ped30" depart="9.39" type="ped_pedestrian">
        <walk from="217288728#2" to="50473376"/>
    </person>
    <person id="ped31" depart="9.70" type="ped_pedestrian">
        <walk from="-244221655#1" to="179699156"/>
    </person>
    <person id="ped32" depart="10.01" type="ped_pedestrian">
        <walk from="177039203#5" to="-744354550"/>
    </person>
    <person id="ped33" depart="10.33" type="ped_pedestrian">
        <walk from="-639428187" to="732851283"/>
    </person>
    <person id="ped34" depart="10.64" type="ped_pedestrian">
        <walk from="242280608#1" to="-19800539#2"/>
    </person>
    <person id="ped35" depart="10.95" type="ped_pedestrian">
        <walk from="992449585#5" to="623636753"/>
    </person>
    <person id="ped36" depart="11.26" type="ped_pedestrian">
        <walk from="219141627" to="-4611421#0"/>
    </person>
    <person id="ped37" depart="11.58" type="ped_pedestrian">
        <walk from="162957515#4" to="-217311112"/>
    </person>
    <person id="ped38" depart="11.89" type="ped_pedestrian">
        <walk from="199273855#1" to="177179991"/>
    </person>
    <person id="ped39" depart="12.20" type="ped_pedestrian">
        <walk from="-586934184#1" to="-26085290#5"/>
    </person>
    <person id="ped40" depart="12.52" type="ped_pedestrian">
        <walk from="229975652" to="754198791"/>
    </person>
    <person id="ped41" depart="12.83" type="ped_pedestrian">
        <walk from="-220401714" to="203018176#1"/>
    </person>
    <person id="ped42" depart="13.14" type="ped_pedestrian">
        <walk from="-220499065#4" to="-4611394#7"/>
    </person>
    <person id="ped43" depart="13.45" type="ped_pedestrian">
        <walk from="-671267854" to="751862877#4"/>
    </person>
    <person id="ped44" depart="13.77" type="ped_pedestrian">
        <walk from="659223381#2" to="655764689"/>
    </person>
    <person id="ped45" depart="14.08" type="ped_pedestrian">
        <walk from="-24958274#0" to="243095507#1"/>
    </person>
    <person id="ped46" depart="14.39" type="ped_pedestrian">
        <walk from="291688212#5" to="-67022248#1"/>
    </person>
    <person id="ped47" depart="14.71" type="ped_pedestrian">
        <walk from="630991212" to="-241953965#0"/>
    </person>
    <person id="ped48" depart="15.02" type="ped_pedestrian">
        <walk from="177556985#8" to="-721744140#2"/>
    </person>
    <person id="ped49" depart="15.33" type="ped_pedestrian">
        <walk from="-106283561#0" to="4627996#5"/>
    </person>
    <person id="ped50" depart="15.64" type="ped_pedestrian">
        <walk from="293930085#1" to="-66273571#6"/>
    </person>
    <person id="ped51" depart="15.96" type="ped_pedestrian">
        <walk from="-321034362" to="-271389848#1"/>
    </person>
    <person id="ped52" depart="16.27" type="ped_pedestrian">
        <walk from="103308624#1" to="677324790"/>
    </person>
    <person id="ped53" depart="16.58" type="ped_pedestrian">
        <walk from="677324692#1" to="-4591114"/>
    </person>
    <person id="ped54" depart="16.90" type="ped_pedestrian">
        <walk from="58697364" to="659328004#4"/>
    </person>
    <person id="ped55" depart="17.21" type="ped_pedestrian">
        <walk from="-152515337" to="4446567#9"/>
    </person>
    <person id="ped56" depart="17.52" type="ped_pedestrian">
        <walk from="55818194" to="641900134"/>
    </person>
    <person id="ped57" depart="17.83" type="ped_pedestrian">
        <walk from="204424889" to="-98521897"/>
    </person>
    <person id="ped58" depart="18.15" type="ped_pedestrian">
        <walk from="110310443#3" to="642174861"/>
    </person>
    <person id="ped59" depart="18.46" type="ped_pedestrian">
        <walk from="857608137" to="-744354570"/>
    </person>
    <person id="ped60" depart="18.77" type="ped_pedestrian">
        <walk from="763377553" to="-25516470#0"/>
    </person>
    <person id="ped61" depart="19.09" type="ped_pedestrian">
        <walk from="-24978306#0" to="182788344#1"/>
    </person>
    <person id="ped62" depart="19.40" type="ped_pedestrian">
        <walk from="4432395#1" to="105670567#1"/>
    </person>
    <person id="ped63" depart="19.71" type="ped_pedestrian">
        <walk from="238314840#5" to="440194636#1"/>
    </person>
    <person id="ped64" depart="20.02" type="ped_pedestrian">
        <walk from="105671770" to="631604800"/>
    </person>
    <person id="ped65" depart="20.34" type="ped_pedestrian">
        <walk from="-271388394" to="173593973#1"/>
    </person>
    <person id="ped66" depart="20.65" type="ped_pedestrian">
        <walk from="690456634" to="26867499"/>
    </person>
    <person id="ped67" depart="20.96" type="ped_pedestrian">
        <walk from="-931041110" to="241957561#1"/>
    </person>
    <person id="ped68" depart="21.28" type="ped_pedestrian">
        <walk from="-100189596#2" to="-79639752#2"/>
    </person>
    <person id="ped69" depart="21.59" type="ped_pedestrian">
        <walk from="179042987#0" to="24978299#4"/>
    </person>
    <person id="ped70" depart="21.90" type="ped_pedestrian">
        <walk from="536144264" to="-400593449#0"/>
    </person>
    <person id="ped71" depart="22.21" type="ped_pedestrian">
        <walk from="290433799#0" to="114467205"/>
    </person>
    <person id="ped72" depart="22.53" type="ped_pedestrian">
        <walk from="60257811#2" to="4538029"/>
    </person>
    <person id="ped73" depart="22.84" type="ped_pedestrian">
        <walk from="634117978" to="-220471827#1"/>
    </person>
    <person id="ped74" depart="23.15" type="ped_pedestrian">
        <walk from="220173799#1" to="-61730903#0"/>
    </person>
    <person id="ped75" depart="23.47" type="ped_pedestrian">
        <walk from="453800744#0" to="4627974#1"/>
    </person>
    <person id="ped76" depart="23.78" type="ped_pedestrian">
        <walk from="-435017532#9" to="828589310#3"/>
    </person>
    <person id="ped77" depart="24.09" type="ped_pedestrian">
        <walk from="200843270#1" to="557066754"/>
    </person>
    <person id="ped78" depart="24.40" type="ped_pedestrian">
        <walk from="32736122#5" to="936377176"/>
    </person>
    <person id="ped79" depart="24.72" type="ped_pedestrian">
        <walk from="670155842" to="265480033#0"/>
    </person>
    <person id="ped80" depart="25.03" type="ped_pedestrian">
        <walk from="281436319#0" to="-717063787"/>
    </person>
    <person id="ped81" depart="25.34" type="ped_pedestrian">
        <walk from="-702393184" to="107207223"/>
    </person>
    <person id="ped82" depart="25.66" type="ped_pedestrian">
        <walk from="239316051" to="-299569062"/>
    </person>
    <person id="ped83" depart="25.97" type="ped_pedestrian">
        <walk from="182921453#0" to="-161277768#1"/>
    </person>
    <person id="ped84" depart="26.28" type="ped_pedestrian">
        <walk from="27236402" to="-158824150"/>
    </person>
    <person id="ped85" depart="26.60" type="ped_pedestrian">
        <walk from="-159585407" to="303209187"/>
    </person>
    <person id="ped86" depart="26.91" type="ped_pedestrian">
        <walk from="-197853998#3" to="142698491#1"/>
    </person>
    <person id="ped87" depart="27.22" type="ped_pedestrian">
        <walk from="4548063#3" to="621463337"/>
    </person>
    <person id="ped88" depart="27.53" type="ped_pedestrian">
        <walk from="-641830321" to="-23019181#0"/>
    </person>
    <person id="ped89" depart="27.85" type="ped_pedestrian">
        <walk from="-26961850#0" to="329140499#5"/>
    </person>
    <person id="ped90" depart="28.16" type="ped_pedestrian">
        <walk from="386993046#5" to="4611401#0"/>
    </person>
    <person id="ped91" depart="28.47" type="ped_pedestrian">
        <walk from="452234397" to="-25397962#1"/>
    </person>
    <person id="ped92" depart="28.79" type="ped_pedestrian">
        <walk from="-24978283#6" to="-154804387"/>
    </person>
    <person id="ped93" depart="29.10" type="ped_pedestrian">
        <walk from="-24772709#1" to="4651510"/>
    </person>
    <person id="ped94" depart="29.41" type="ped_pedestrian">
        <walk from="220706198#0" to="117574992"/>
    </person>
    <person id="ped95" depart="29.72" type="ped_pedestrian">
        <walk from="292396836#22" to="617623068#0"/>
    </person>
    <person id="ped96" depart="30.04" type="ped_pedestrian">
        <walk from="238313758#2" to="219052453#4"/>
    </person>
    <person id="ped97" depart="30.35" type="ped_pedestrian">
        <walk from="-689987104" to="635547515#1"/>
    </person>
    <person id="ped98" depart="30.66" type="ped_pedestrian">
        <walk from="660166107" to="-61678138"/>
    </person>
    <person id="ped99" depart="30.98" type="ped_pedestrian">
        <walk from="142698477#0" to="-160729923#2"/>
    </person>
    <person id="ped100" depart="31.29" type="ped_pedestrian">
        <walk from="-235197427#1" to="4405106#2"/>
    </person>
    <person id="ped101" depart="31.60" type="ped_pedestrian">
        <walk from="250658435#0" to="217317609#6"/>
    </person>
    <person id="ped102" depart="31.91" type="ped_pedestrian">
        <walk from="233993400#0" to="178085049#1"/>
    </person>
    <person id="ped103" depart="32.23" type="ped_pedestrian">
        <walk from="45138574#0" to="112477876#1"/>
    </person>
    <person id="ped104" depart="32.54" type="ped_pedestrian">
        <walk from="-4441836#1" to="-260089892"/>
    </person>
    <person id="ped105" depart="32.85" type="ped_pedestrian">
        <walk from="-220668393#2" to="28530570#0"/>
    </person>
    <person id="ped106" depart="33.17" type="ped_pedestrian">
        <walk from="969544365#1" to="-258140327#4"/>
    </person>
    <person id="ped107" depart="33.48" type="ped_pedestrian">
        <walk from="526822563#1" to="-526822563#2"/>
    </person>
    <person id="ped108" depart="33.79" type="ped_pedestrian">
        <walk from="229968279#2" to="194256368"/>
    </person>
    <person id="ped109" depart="34.10" type="ped_pedestrian">
        <walk from="32089567#7" to="-33791582"/>
    </person>
    <person id="ped110" depart="34.42" type="ped_pedestrian">
        <walk from="-428641246#1" to="-221070937#0"/>
    </person>
    <person id="ped111" depart="34.73" type="ped_pedestrian">
        <walk from="405351288" to="197853998#19"/>
    </person>
    <person id="ped112" depart="35.04" type="ped_pedestrian">
        <walk from="511316305#1" to="27873891#0"/>
    </person>
    <person id="ped113" depart="35.36" type="ped_pedestrian">
        <walk from="305064233#0" to="708208652#0"/>
    </person>
    <person id="ped114" depart="35.67" type="ped_pedestrian">
        <walk from="107751007" to="-64051651#4"/>
    </person>
    <person id="ped115" depart="35.98" type="ped_pedestrian">
        <walk from="805021763" to="992449590#2"/>
    </person>
    <person id="ped116" depart="36.29" type="ped_pedestrian">
        <walk from="717477385" to="-4419692#4"/>
    </person>
    <person id="ped117" depart="36.61" type="ped_pedestrian">
        <walk from="25193692#2" to="291689163#4"/>
    </person>
    <person id="ped118" depart="36.92" type="ped_pedestrian">
        <walk from="59356217" to="242156827#9"/>
    </person>
    <person id="ped119" depart="37.23" type="ped_pedestrian">
        <walk from="19841536" to="105748914#2"/>
    </person>
    <person id="ped120" depart="37.55" type="ped_pedestrian">
        <walk from="108048595" to="868238679"/>
    </person>
    <person id="ped121" depart="37.86" type="ped_pedestrian">
        <walk from="937386720#1" to="314874410#7"/>
    </person>
    <person id="ped122" depart="38.17" type="ped_pedestrian">
        <walk from="-4432401#1" to="132315479#0"/>
    </person>
    <person id="ped123" depart="38.48" type="ped_pedestrian">
        <walk from="242047951#1" to="744365353"/>
    </person>
    <person id="ped124" depart="38.80" type="ped_pedestrian">
        <walk from="-26195363" to="88244241#7"/>
    </person>
    <person id="ped125" depart="39.11" type="ped_pedestrian">
        <walk from="-34892913#1" to="242530443"/>
    </person>
    <person id="ped126" depart="39.42" type="ped_pedestrian">
        <walk from="242949071#0" to="-241957550#2"/>
    </person>
    <person id="ped127" depart="39.74" type="ped_pedestrian">
        <walk from="910761919" to="-616059252"/>
    </person>
    <person id="ped128" depart="40.05" type="ped_pedestrian">
        <walk from="242623273#5" to="146490199#0"/>
    </person>
    <person id="ped129" depart="40.36" type="ped_pedestrian">
        <walk from="726126519" to="221656796"/>
    </person>
    <person id="ped130" depart="40.67" type="ped_pedestrian">
        <walk from="172591498" to="754198776"/>
    </person>
    <person id="ped131" depart="40.99" type="ped_pedestrian">
        <walk from="450627811" to="410353063#5"/>
    </person>
    <person id="ped132" depart="41.30" type="ped_pedestrian">
        <walk from="910766007" to="220173819#0"/>
    </person>
    <person id="ped133" depart="41.61" type="ped_pedestrian">
        <walk from="25351077" to="646355929"/>
    </person>
    <person id="ped134" depart="41.93" type="ped_pedestrian">
        <walk from="442440278#0" to="169881595"/>
    </person>
    <person id="ped135" depart="42.24" type="ped_pedestrian">
        <walk from="-219662941#1" to="288319660"/>
    </person>
    <person id="ped136" depart="42.55" type="ped_pedestrian">
        <walk from="4516039#0" to="182747475"/>
    </person>
    <person id="ped137" depart="42.87" type="ped_pedestrian">
        <walk from="-24611749#7" to="290733142#1"/>
    </person>
    <person id="ped138" depart="43.18" type="ped_pedestrian">
        <walk from="-854447712#0" to="137895970"/>
    </person>
    <person id="ped139" depart="43.49" type="ped_pedestrian">
        <walk from="24646327#6" to="52837369#3"/>
    </person>
    <person id="ped140" depart="43.80" type="ped_pedestrian">
        <walk from="64719754#2" to="272023065#1"/>
    </person>
    <person id="ped141" depart="44.12" type="ped_pedestrian">
        <walk from="-304892819#1" to="205847879#2"/>
    </person>
    <person id="ped142" depart="44.43" type="ped_pedestrian">
        <walk from="-115882819#1" to="561209452"/>
    </person>
    <person id="ped143" depart="44.74" type="ped_pedestrian">
        <walk from="-64042547" to="630970759"/>
    </person>
    <person id="ped144" depart="45.06" type="ped_pedestrian">
        <walk from="-4481629#1" to="146490220#0"/>
    </person>
    <person id="ped145" depart="45.37" type="ped_pedestrian">
        <walk from="900894130" to="316792380#1"/>
    </person>
    <person id="ped146" depart="45.68" type="ped_pedestrian">
        <walk from="-71520445#1" to="24646327#6"/>
    </person>
    <person id="ped147" depart="45.99" type="ped_pedestrian">
        <walk from="220472040#0" to="691681960"/>
    </person>
    <person id="ped148" depart="46.31" type="ped_pedestrian">
        <walk from="-78683997#2" to="548744456#0"/>
    </person>
    <person id="ped149" depart="46.62" type="ped_pedestrian">
        <walk from="293803034#8" to="27229644#2"/>
    </person>
    <person id="ped150" depart="46.93" type="ped_pedestrian">
        <walk from="339348344#2" to="4406218#9"/>
    </person>
    <person id="ped151" depart="47.25" type="ped_pedestrian">
        <walk from="318380436#3" to="625575430"/>
    </person>
    <person id="ped152" depart="47.56" type="ped_pedestrian">
        <walk from="184321351" to="24978288#1"/>
    </person>
    <person id="ped153" depart="47.87" type="ped_pedestrian">
        <walk from="-434928999#0" to="-28315446#0"/>
    </person>
    <person id="ped154" depart="48.18" type="ped_pedestrian">
        <walk from="83939050#2" to="-303209182"/>
    </person>
    <person id="ped155" depart="48.50" type="ped_pedestrian">
        <walk from="857231710" to="64094225"/>
    </person>
    <person id="ped156" depart="48.81" type="ped_pedestrian">
        <walk from="857740525" to="561209443"/>
    </person>
    <person id="ped157" depart="49.12" type="ped_pedestrian">
        <walk from="607070854#0" to="766309899"/>
    </person>
    <person id="ped158" depart="49.44" type="ped_pedestrian">
        <walk from="806686290#1" to="-172065628#2"/>
    </person>
    <person id="ped159" depart="49.75" type="ped_pedestrian">
        <walk from="135228014#6" to="187529046#1"/>
    </person>
    <person id="ped160" depart="50.06" type="ped_pedestrian">
        <walk from="240433290#3" to="897969975#0"/>
    </person>
    <person id="ped161" depart="50.37" type="ped_pedestrian">
        <walk from="321842583" to="303209149#1"/>
    </person>
    <person id="ped162" depart="50.69" type="ped_pedestrian">
        <walk from="25754563" to="-142698473#1"/>
    </person>
    <person id="ped163" depart="51.00" type="ped_pedestrian">
        <walk from="509191541" to="-613501578"/>
    </person>
    <person id="ped164" depart="51.31" type="ped_pedestrian">
        <walk from="646355929" to="111058304"/>
    </person>
    <person id="ped165" depart="51.63" type="ped_pedestrian">
        <walk from="-317100709" to="686610625#1"/>
    </person>
    <person id="ped166" depart="51.94" type="ped_pedestrian">
        <walk from="321044928" to="-155148547#1"/>
    </person>
    <person id="ped167" depart="52.25" type="ped_pedestrian">
        <walk from="-131248040#2" to="52518794"/>
    </person>
    <person id="ped168" depart="52.56" type="ped_pedestrian">
        <walk from="451297187#1" to="217577560#7"/>
    </person>
    <person id="ped169" depart="52.88" type="ped_pedestrian">
        <walk from="502366610#1" to="643886891"/>
    </person>
    <person id="ped170" depart="53.19" type="ped_pedestrian">
        <walk from="218482054#4" to="164209799"/>
    </person>
    <person id="ped171" depart="53.50" type="ped_pedestrian">
        <walk from="-229333818" to="262460012"/>
    </person>
    <person id="ped172" depart="53.82" type="ped_pedestrian">
        <walk from="400868814" to="638224991"/>
    </person>
    <person id="ped173" depart="54.13" type="ped_pedestrian">
        <walk from="194959536#7" to="-542548474#1"/>
    </person>
    <person id="ped174" depart="54.44" type="ped_pedestrian">
        <walk from="172593429#3" to="-242664246#4"/>
    </person>
    <person id="ped175" depart="54.75" type="ped_pedestrian">
        <walk from="178239852" to="324101128#11"/>
    </person>
    <person id="ped176" depart="55.07" type="ped_pedestrian">
        <walk from="589046209#2" to="243823108#17"/>
    </person>
    <person id="ped177" depart="55.38" type="ped_pedestrian">
        <walk from="127039632" to="324101128#7"/>
    </person>
    <person id="ped178" depart="55.69" type="ped_pedestrian">
        <walk from="314048722" to="-509834613#1"/>
    </person>
    <person id="ped179" depart="56.01" type="ped_pedestrian">
        <walk from="134100465#4" to="4591119#3"/>
    </person>
    <person id="ped180" depart="56.32" type="ped_pedestrian">
        <walk from="249074681#5" to="576048702#6"/>
    </person>
    <person id="ped181" depart="56.63" type="ped_pedestrian">
        <walk from="60257811#2" to="26648782#2"/>
    </person>
    <person id="ped182" depart="56.94" type="ped_pedestrian">
        <walk from="405309096#1" to="103667861#0"/>
    </person>
    <person id="ped183" depart="57.26" type="ped_pedestrian">
        <walk from="162032162" to="-303504362#2"/>
    </person>
    <person id="ped184" depart="57.57" type="ped_pedestrian">
        <walk from="45138575#3" to="-4627951#5"/>
    </person>
    <person id="ped185" depart="57.88" type="ped_pedestrian">
        <walk from="135226331#3" to="4419688#11"/>
    </person>
    <person id="ped186" depart="58.20" type="ped_pedestrian">
        <walk from="-233598400#3" to="-204335567#0"/>
    </person>
    <person id="ped187" depart="58.51" type="ped_pedestrian">
        <walk from="186832686#0" to="-711331947"/>
    </person>
    <person id="ped188" depart="58.82" type="ped_pedestrian">
        <walk from="326814541#1" to="-187628598#2"/>
    </person>
    <person id="ped189" depart="59.13" type="ped_pedestrian">
        <walk from="-64952103#1" to="110263755"/>
    </person>
    <person id="ped190" depart="59.45" type="ped_pedestrian">
        <walk from="-435017532#3" to="143552802"/>
    </person>
    <person id="ped191" depart="59.76" type="ped_pedestrian">
        <walk from="406986840#1" to="220510752#1"/>
    </person>
    <person id="ped192" depart="60.07" type="ped_pedestrian">
        <walk from="-182931454" to="-136778029#2"/>
    </person>
    <person id="ped193" depart="60.39" type="ped_pedestrian">
        <walk from="426437769" to="172674944#0"/>
    </person>
    <person id="ped194" depart="60.70" type="ped_pedestrian">
        <walk from="630959522" to="-61312874#0"/>
    </person>
    <person id="ped195" depart="61.01" type="ped_pedestrian">
        <walk from="697156226#4" to="122121103#0"/>
    </person>
    <person id="ped196" depart="61.33" type="ped_pedestrian">
        <walk from="4432381#2" to="60302077#1"/>
    </person>
    <person id="ped197" depart="61.64" type="ped_pedestrian">
        <walk from="-312664682" to="-446192691"/>
    </person>
    <person id="ped198" depart="61.95" type="ped_pedestrian">
        <walk from="19277199#1" to="744354542"/>
    </person>
    <person id="ped199" depart="62.26" type="ped_pedestrian">
        <walk from="-219662931#0" to="187162062#1"/>
    </person>
    <person id="ped200" depart="62.58" type="ped_pedestrian">
        <walk from="-208149324#2" to="221070937#1"/>
    </person>
    <person id="ped201" depart="62.89" type="ped_pedestrian">
        <walk from="104560879#0" to="196614103#3"/>
    </person>
    <person id="ped202" depart="63.20" type="ped_pedestrian">
        <walk from="243397882#0" to="52837360#4"/>
    </person>
    <person id="ped203" depart="63.52" type="ped_pedestrian">
        <walk from="-248700670" to="67834945#3"/>
    </person>
    <person id="ped204" depart="63.83" type="ped_pedestrian">
        <walk from="119509637#1" to="43403492#0"/>
    </person>
    <person id="ped205" depart="64.14" type="ped_pedestrian">
        <walk from="183795951" to="229973353"/>
    </person>
    <person id="ped206" depart="64.45" type="ped_pedestrian">
        <walk from="-35377839" to="137051345#2"/>
    </person>
    <person id="ped207" depart="64.77" type="ped_pedestrian">
        <walk from="-75592773#2" to="169758804"/>
    </person>
    <person id="ped208" depart="65.08" type="ped_pedestrian">
        <walk from="341141391#0" to="-763388042"/>
    </person>
    <person id="ped209" depart="65.39" type="ped_pedestrian">
        <walk from="699851995" to="649566009"/>
    </person>
    <person id="ped210" depart="65.71" type="ped_pedestrian">
        <walk from="858128821#3" to="385814013#6"/>
    </person>
    <person id="ped211" depart="66.02" type="ped_pedestrian">
        <walk from="592923700#0" to="329163406#5"/>
    </person>
    <person id="ped212" depart="66.33" type="ped_pedestrian">
        <walk from="-531527817#1" to="-293803034#5"/>
    </person>
    <person id="ped213" depart="66.64" type="ped_pedestrian">
        <walk from="-223717148#2" to="629495114"/>
    </person>
    <person id="ped214" depart="66.96" type="ped_pedestrian">
        <walk from="-24646327#9" to="4627995#1"/>
    </person>
    <person id="ped215" depart="67.27" type="ped_pedestrian">
        <walk from="46099962#0" to="-279020866#0"/>
    </person>
    <person id="ped216" depart="67.58" type="ped_pedestrian">
        <walk from="583097249" to="-376630125#34"/>
    </person>
    <person id="ped217" depart="67.90" type="ped_pedestrian">
        <walk from="187644496" to="-769978237#1"/>
    </person>
    <person id="ped218" depart="68.21" type="ped_pedestrian">
        <walk from="236789969#9" to="103733701#0"/>
    </person>
    <person id="ped219" depart="68.52" type="ped_pedestrian">
        <walk from="62306800#1" to="134100483#1"/>
    </person>
    <person id="ped220" depart="68.83" type="ped_pedestrian">
        <walk from="798861090#0" to="922302240"/>
    </person>
    <person id="ped221" depart="69.15" type="ped_pedestrian">
        <walk from="206333997" to="-746679327"/>
    </person>
    <person id="ped222" depart="69.46" type="ped_pedestrian">
        <walk from="55553400#1" to="-299569063"/>
    </person>
    <person id="ped223" depart="69.77" type="ped_pedestrian">
        <walk from="-640239260#0" to="302990193#1"/>
    </person>
    <person id="ped224" depart="70.09" type="ped_pedestrian">
        <walk from="64957021#1" to="243480583#0"/>
    </person>
    <person id="ped225" depart="70.40" type="ped_pedestrian">
        <walk from="692788310" to="-316792387"/>
    </person>
    <person id="ped226" depart="70.71" type="ped_pedestrian">
        <walk from="-498525894#0" to="194712155#0"/>
    </person>
    <person id="ped227" depart="71.02" type="ped_pedestrian">
        <walk from="-204335604#0" to="220510767#3"/>
    </person>
    <person id="ped228" depart="71.34" type="ped_pedestrian">
        <walk from="-589941333#0" to="973265253#2"/>
    </person>
    <person id="ped229" depart="71.65" type="ped_pedestrian">
        <walk from="138008358#1" to="-160159321#5"/>
    </person>
    <person id="ped230" depart="71.96" type="ped_pedestrian">
        <walk from="-293803034#6" to="-79639752#1"/>
    </person>
    <person id="ped231" depart="72.28" type="ped_pedestrian">
        <walk from="-931041116" to="-193233147#0"/>
    </person>
    <person id="ped232" depart="72.59" type="ped_pedestrian">
        <walk from="692721808" to="25736897#3"/>
    </person>
    <person id="ped233" depart="72.90" type="ped_pedestrian">
        <walk from="-607070841" to="-305064237"/>
    </person>
    <person id="ped234" depart="73.21" type="ped_pedestrian">
        <walk from="322559094#2" to="-235197427#1"/>